
**** 11/28/23 18:27:48 ****** PSpice 16.5.0 (April 2011) ****** ID# 0 ********

 ** Profile: "SCHEMATIC1-PAGE3_simulation"  [ C:\Users\Huang Xianmin\Desktop\Pspice_simulation_file\03_OrCAD_practice\03_OrCAD_practi


 ****     CIRCUIT DESCRIPTION


******************************************************************************




** Creating circuit file "PAGE3_simulation.cir" 
** WARNING: THIS AUTOMATICALLY GENERATED FILE MAY BE OVERWRITTEN BY SUBSEQUENT SIMULATIONS

*Libraries: 
* Profile Libraries :
* Local Libraries :
* From [PSPICE NETLIST] section of D:\Cadence\SPB_16.5\tools\PSpice\PSpice.ini file:
.lib "nom.lib" 

*Analysis directives: 
.TRAN  0 40ms 0 0.01ms 
.PROBE V(alias(*)) I(alias(*)) W(alias(*)) D(alias(*)) NOISE(alias(*)) 
.INC "..\SCHEMATIC1.net" 



**** INCLUDING SCHEMATIC1.net ****
* source 03_ORCAD_PRACTICE
R_R1         VIN VOUT  1k TC=0,0 
D_D1         VOUT 0 D1N4148 
V_Vs         VIN 0  AC 0
+SIN 0 10 1k 0 0 0
V_V1         N01092 N01183  AC 0
+SIN 0 12V 50Hz 0 0 0
D_D2         0 N01092 D1N4148 
D_D3         N01092 N01272 D1N4148 
D_D4         N01183 N01272 D1N4148 
D_D5         0 N01183 D1N4148 
R_R2         0 N01272  1k TC=0,0 
V_V2         N02520 N02479  AC 0
+SIN 0 9V 50Hz 0 0 0
R_R3         N02520 N02466  5k TC=0,0 
R_R4         N02479 N02466  10k TC=0,0 
D_D6         N02466 N02462 D1N750 
D_D7         N02479 N02462 D1N750 

**** RESUMING PAGE3_simulation.cir ****
.END

ERROR(ORPSIM-15142): Node N02520 is floating

ERROR(ORPSIM-15142): Node N02479 is floating

ERROR(ORPSIM-15142): Node N02466 is floating

ERROR(ORPSIM-15142): Node N02462 is floating
